output/2_TAP2_1/Cargas_MT_DO01_2_TAP2_1.dss
New "Load.MT_8444_M1" bus1="84441.1.2.3.4" phases=3 conn=delta model=2 kv=13.8 kw = 71.78516387489942 pf=0.92 status=variable vmaxpu=1.5 vminpu=0.93 daily="1_DO" 
New "Load.MT_8444_M2" bus1="84441.1.2.3.4" phases=3 conn=delta model=3 kv=13.8 kw = 71.78516387489942 pf=0.92 status=variable vmaxpu=1.5 vminpu=0.93 daily="1_DO"
 
New "Load.MT_8266_M1" bus1="82661.1.2.3.4" phases=3 conn=delta model=2 kv=13.8 kw = 2052.5378577400047 pf=0.92 status=variable vmaxpu=1.5 vminpu=0.93 daily="5_DO" 
New "Load.MT_8266_M2" bus1="82661.1.2.3.4" phases=3 conn=delta model=3 kv=13.8 kw = 2052.5378577400047 pf=0.92 status=variable vmaxpu=1.5 vminpu=0.93 daily="5_DO"
 
New "Load.MT_8092_M1" bus1="80921.1.2.3.4" phases=3 conn=delta model=2 kv=13.8 kw = 1740.678229066978 pf=0.92 status=variable vmaxpu=1.5 vminpu=0.93 daily="6_DO" 
New "Load.MT_8092_M2" bus1="80921.1.2.3.4" phases=3 conn=delta model=3 kv=13.8 kw = 1740.678229066978 pf=0.92 status=variable vmaxpu=1.5 vminpu=0.93 daily="6_DO"
 
New "Load.MT_7769_M1" bus1="77691.1.2.3.4" phases=3 conn=delta model=2 kv=13.8 kw = 213.68050446761728 pf=0.92 status=variable vmaxpu=1.5 vminpu=0.93 daily="1_DO" 
New "Load.MT_7769_M2" bus1="77691.1.2.3.4" phases=3 conn=delta model=3 kv=13.8 kw = 213.68050446761728 pf=0.92 status=variable vmaxpu=1.5 vminpu=0.93 daily="1_DO"
 
New "Load.MT_7632_M1" bus1="76321.1.2.3.4" phases=3 conn=delta model=2 kv=13.8 kw = 20338.948020718264 pf=0.92 status=variable vmaxpu=1.5 vminpu=0.93 daily="6_DO" 
New "Load.MT_7632_M2" bus1="76321.1.2.3.4" phases=3 conn=delta model=3 kv=13.8 kw = 20338.948020718264 pf=0.92 status=variable vmaxpu=1.5 vminpu=0.93 daily="6_DO"
 
New "Load.MT_7595_M1" bus1="75951.1.2.3.4" phases=3 conn=delta model=2 kv=13.8 kw = 4715.853923905774 pf=0.92 status=variable vmaxpu=1.5 vminpu=0.93 daily="3_DO" 
New "Load.MT_7595_M2" bus1="75951.1.2.3.4" phases=3 conn=delta model=3 kv=13.8 kw = 4715.853923905774 pf=0.92 status=variable vmaxpu=1.5 vminpu=0.93 daily="3_DO"
 
New "Load.MT_7322_M1" bus1="73221.1.2.3.4" phases=3 conn=delta model=2 kv=13.8 kw = 2632.361959292562 pf=0.92 status=variable vmaxpu=1.5 vminpu=0.93 daily="1_DO" 
New "Load.MT_7322_M2" bus1="73221.1.2.3.4" phases=3 conn=delta model=3 kv=13.8 kw = 2632.361959292562 pf=0.92 status=variable vmaxpu=1.5 vminpu=0.93 daily="1_DO"
 
New "Load.MT_6803_M1" bus1="68031.1.2.3.4" phases=3 conn=delta model=2 kv=13.8 kw = 4565.29713856402 pf=0.92 status=variable vmaxpu=1.5 vminpu=0.93 daily="1_DO" 
New "Load.MT_6803_M2" bus1="68031.1.2.3.4" phases=3 conn=delta model=3 kv=13.8 kw = 4565.29713856402 pf=0.92 status=variable vmaxpu=1.5 vminpu=0.93 daily="1_DO"
 
New "Load.MT_7250_M1" bus1="72501.1.2.3.4" phases=3 conn=delta model=2 kv=13.8 kw = 1363.2002619843402 pf=0.92 status=variable vmaxpu=1.5 vminpu=0.93 daily="1_DO" 
New "Load.MT_7250_M2" bus1="72501.1.2.3.4" phases=3 conn=delta model=3 kv=13.8 kw = 1363.2002619843402 pf=0.92 status=variable vmaxpu=1.5 vminpu=0.93 daily="1_DO"
 
New "Load.MT_126_M1" bus1="1261.1.2.3.4" phases=3 conn=delta model=2 kv=13.8 kw = 2676601.3136827624 pf=0.92 status=variable vmaxpu=1.5 vminpu=0.93 daily="3_DO" 
New "Load.MT_126_M2" bus1="1261.1.2.3.4" phases=3 conn=delta model=3 kv=13.8 kw = 2676601.3136827624 pf=0.92 status=variable vmaxpu=1.5 vminpu=0.93 daily="3_DO"
 
New "Load.MT_1236_M1" bus1="12361.1.2.3.4" phases=3 conn=delta model=2 kv=13.8 kw = 364534.9854959736 pf=0.92 status=variable vmaxpu=1.5 vminpu=0.93 daily="3_DO" 
New "Load.MT_1236_M2" bus1="12361.1.2.3.4" phases=3 conn=delta model=3 kv=13.8 kw = 364534.9854959736 pf=0.92 status=variable vmaxpu=1.5 vminpu=0.93 daily="3_DO"
 
New "Load.MT_1705_M1" bus1="17051.1.2.3.4" phases=3 conn=delta model=2 kv=13.8 kw = 21159.465325846966 pf=0.92 status=variable vmaxpu=1.5 vminpu=0.93 daily="7_DO" 
New "Load.MT_1705_M2" bus1="17051.1.2.3.4" phases=3 conn=delta model=3 kv=13.8 kw = 21159.465325846966 pf=0.92 status=variable vmaxpu=1.5 vminpu=0.93 daily="7_DO"
 
New "Load.MT_461_M1" bus1="4611.1.2.3.4" phases=3 conn=delta model=2 kv=13.8 kw = 627.402332266621 pf=0.92 status=variable vmaxpu=1.5 vminpu=0.93 daily="1_DO" 
New "Load.MT_461_M2" bus1="4611.1.2.3.4" phases=3 conn=delta model=3 kv=13.8 kw = 627.402332266621 pf=0.92 status=variable vmaxpu=1.5 vminpu=0.93 daily="1_DO"
 
New "Load.MT_427_M1" bus1="4271.1.2.3.4" phases=3 conn=delta model=2 kv=13.8 kw = 1460.5888009746204 pf=0.92 status=variable vmaxpu=1.5 vminpu=0.93 daily="1_DO" 
New "Load.MT_427_M2" bus1="4271.1.2.3.4" phases=3 conn=delta model=3 kv=13.8 kw = 1460.5888009746204 pf=0.92 status=variable vmaxpu=1.5 vminpu=0.93 daily="1_DO"
 
